8500-Node/IEEE8500_Power_elem_kVA.txt

CIRCUIT ELEMENT POWER FLOW

(Power Flow into element from indicated Bus)

Power Delivery Elements

  Bus                Phase     kW     +j   kvar         kVA         PF

ELEMENT = "Vsource.SOURCE"
SOURCEBUS                1     -4109.2 +j   -658.1     4161.5       0.9874
SOURCEBUS                2     -3767.2 +j   -462.8     3795.6       0.9925
SOURCEBUS                3     -4107.3 +j   -264.3     4115.8       0.9979
   TERMINAL TOTAL ............-11983.7 +j  -1385.2    12063.5       0.9934
SOURCEBUS                0         0.0 +j      0.0        0.0       1.0000
SOURCEBUS                0         0.0 +j      0.0        0.0       1.0000
SOURCEBUS                0         0.0 +j      0.0        0.0       1.0000
   TERMINAL TOTAL ............     0.0 +j      0.0        0.0       1.0000

ELEMENT = "Line.HVMV_SUB_CONNECTOR"
_HVMV_SUB_LSB            1      4153.1 +j    258.6     4161.1       0.9981
_HVMV_SUB_LSB            2      3991.7 +j    334.0     4005.7       0.9965
_HVMV_SUB_LSB            3      3774.1 +j   -104.9     3775.5      -0.9996
   TERMINAL TOTAL ............ 11918.9 +j    487.7    11928.8       0.9992
HVMV_SUB_48332           1     -4153.1 +j   -258.6     4161.1       0.9981
HVMV_SUB_48332           2     -3991.7 +j   -334.0     4005.7       0.9965
HVMV_SUB_48332           3     -3774.1 +j    104.9     3775.5      -0.9996
   TERMINAL TOTAL ............-11918.9 +j   -487.7    11928.8       0.9992

ELEMENT = "Line.LN5502549-1"
M1009763                 2        13.8 +j      3.7       14.3       0.9662
   TERMINAL TOTAL ............    13.8 +j      3.7       14.3       0.9662
L2673322                 2       -13.8 +j     -3.7       14.3       0.9662
   TERMINAL TOTAL ............   -13.8 +j     -3.7       14.3       0.9662

ELEMENT = "Line.LN6259988-1"
M1069148                 3        10.3 +j      2.7       10.7       0.9664
   TERMINAL TOTAL ............    10.3 +j      2.7       10.7       0.9664
L2673309                 3       -10.3 +j     -2.8       10.7       0.9661
   TERMINAL TOTAL ............   -10.3 +j     -2.8       10.7       0.9661

ELEMENT = "Line.LN6077796-1"
M1069588                 2        11.8 +j      3.2       12.2       0.9663
   TERMINAL TOTAL ............    11.8 +j      3.2       12.2       0.9663
L2804270                 2       -11.8 +j     -3.2       12.2       0.9662
   TERMINAL TOTAL ............   -11.8 +j     -3.2       12.2       0.9662

ELEMENT = "Line.LN5835135-2"
M3036164                 2       114.8 +j     30.3      118.8       0.9669
   TERMINAL TOTAL ............   114.8 +j     30.3      118.8       0.9669
L2935553                 2      -114.8 +j    -30.3      118.7       0.9669
   TERMINAL TOTAL ............  -114.8 +j    -30.3      118.7       0.9669

ELEMENT = "Line.LN5896826-1"
M1209749                 2         5.9 +j      1.6        6.1       0.9671
   TERMINAL TOTAL ............     5.9 +j      1.6        6.1       0.9671
L2748840                 2        -5.9 +j     -1.6        6.1       0.9660
   TERMINAL TOTAL ............    -5.9 +j     -1.6        6.1       0.9660

ELEMENT = "Line.LN5714038-1"
M1108264                 2        15.8 +j      4.1       16.3       0.9680
   TERMINAL TOTAL ............    15.8 +j      4.1       16.3       0.9680
M1108263                 2       -15.8 +j     -4.1       16.3       0.9678
   TERMINAL TOTAL ............   -15.8 +j     -4.1       16.3       0.9678

ELEMENT = "Line.LN5653457-1"
L3085398                 1       140.6 +j     37.1      145.4       0.9668
L3085398                 2       298.2 +j     79.7      308.6       0.9661
L3085398                 3       113.9 +j     30.0      117.8       0.9670
   TERMINAL TOTAL ............   552.7 +j    146.8      571.9       0.9665
M1026891                 1      -140.5 +j    -37.1      145.3       0.9668
M1026891                 2      -297.9 +j    -79.6      308.4       0.9662
M1026891                 3      -113.9 +j    -30.0      117.8       0.9669
   TERMINAL TOTAL ............  -552.4 +j   -146.7      571.5       0.9665

ELEMENT = "Line.LN5835173-1"
L3216367                 1       202.2 +j     53.0      209.1       0.9674
L3216367                 2       446.6 +j    121.4      462.8       0.9650
L3216367                 3       340.4 +j     91.4      352.5       0.9658
   TERMINAL TOTAL ............   989.3 +j    265.7     1024.3       0.9658
M1069468                 1      -202.2 +j    -53.0      209.0       0.9673
M1069468                 2      -446.5 +j   -121.3      462.7       0.9650
M1069468                 3      -340.4 +j    -91.3      352.5       0.9658
   TERMINAL TOTAL ............  -989.1 +j   -265.6     1024.2       0.9658

ELEMENT = "Line.LN6321415-1"
M1142800                 2         9.9 +j      2.6       10.2       0.9679
   TERMINAL TOTAL ............     9.9 +j      2.6       10.2       0.9679
M1142799                 2        -9.9 +j     -2.6       10.2       0.9677
   TERMINAL TOTAL ............    -9.9 +j     -2.6       10.2       0.9677

ELEMENT = "Line.LN5565092-1"
M1047592                 3        15.5 +j      4.1       16.1       0.9663
   TERMINAL TOTAL ............    15.5 +j      4.1       16.1       0.9663
P827512                  3       -15.5 +j     -4.1       16.1       0.9663
   TERMINAL TOTAL ............   -15.5 +j     -4.1       16.1       0.9663

ELEMENT = "Line.LN6073648-1"
M1047339                 1        21.6 +j      5.7       22.3       0.9665
   TERMINAL TOTAL ............    21.6 +j      5.7       22.3       0.9665
P895104                  1       -21.6 +j     -5.7       22.3       0.9665
   TERMINAL TOTAL ............   -21.6 +j     -5.7       22.3       0.9665

ELEMENT = "Line.LN5774457-1"
M1026915                 1       210.9 +j     56.1      218.2       0.9664
M1026915                 2       170.4 +j     44.9      176.2       0.9670
M1026915                 3       163.8 +j     43.3      169.5       0.9668
   TERMINAL TOTAL ............   545.1 +j    144.3      563.9       0.9667
M1026920                 1      -210.8 +j    -56.1      218.2       0.9664
M1026920                 2      -170.4 +j    -44.9      176.2       0.9670
M1026920                 3      -163.8 +j    -43.3      169.4       0.9668
   TERMINAL TOTAL ............  -545.0 +j   -144.3      563.8       0.9667

ELEMENT = "Line.LN5534966-3"
N1138596                 1        78.4 +j     20.9       81.1       0.9662
   TERMINAL TOTAL ............    78.4 +j     20.9       81.1       0.9662
L3254207                 1       -78.4 +j    -20.9       81.1       0.9662
   TERMINAL TOTAL ............   -78.4 +j    -20.9       81.1       0.9662

ELEMENT = "Line.LN5859996-1"
M1069464                 2        19.8 +j      5.3       20.5       0.9663
   TERMINAL TOTAL ............    19.8 +j      5.3       20.5       0.9663
P873787                  2       -19.8 +j     -5.3       20.5       0.9662
   TERMINAL TOTAL ............   -19.8 +j     -5.3       20.5       0.9662

ELEMENT = "Line.LN6138610-2"
N1144665                 1       851.5 +j    227.7      881.4       0.9661
N1144665                 2       651.4 +j    178.0      675.3       0.9646
N1144665                 3       744.6 +j    201.3      771.4       0.9653
   TERMINAL TOTAL ............  2247.6 +j    607.0     2328.1       0.9654
M1047515                 1      -850.9 +j   -227.5      880.8       0.9661
M1047515                 2      -651.1 +j   -177.9      675.0       0.9646
M1047515                 3      -744.2 +j   -201.2      770.9       0.9653
   TERMINAL TOTAL ............ -2246.2 +j   -606.6     2326.6       0.9654

ELEMENT = "Line.LN6258435-3"
N1137002                 1        18.0 +j      4.8       18.6       0.9662
   TERMINAL TOTAL ............    18.0 +j      4.8       18.6       0.9662
M1047707                 1       -18.0 +j     -4.8       18.6       0.9660
   TERMINAL TOTAL ............   -18.0 +j     -4.8       18.6       0.9660

ELEMENT = "Line.LN5804790-1"
L2729406                 3        10.3 +j      2.7       10.7       0.9667
   TERMINAL TOTAL ............    10.3 +j      2.7       10.7       0.9667
L2897768                 3       -10.3 +j     -2.8       10.7       0.9662
   TERMINAL TOTAL ............   -10.3 +j     -2.8       10.7       0.9662

ELEMENT = "Line.LN6900591-14"
L3649301                 1        32.5 +j      8.7       33.6       0.9661
   TERMINAL TOTAL ............    32.5 +j      8.7       33.6       0.9661
L3649302                 1       -32.5 +j     -8.7       33.6       0.9661
   TERMINAL TOTAL ............   -32.5 +j     -8.7       33.6       0.9661

ELEMENT = "Line.LN6409873-1"
L2970842                 2        76.2 +j     19.8       78.7       0.9678
   TERMINAL TOTAL ............    76.2 +j     19.8       78.7       0.9678
M1089113                 2       -76.2 +j    -19.8       78.7       0.9678
   TERMINAL TOTAL ............   -76.2 +j    -19.8       78.7       0.9678

ELEMENT = "Line.LN6014135-1"
M1047312                 1        67.6 +j     18.0       69.9       0.9663
   TERMINAL TOTAL ............    67.6 +j     18.0       69.9       0.9663
P893163                  1       -67.6 +j    -18.0       69.9       0.9663
   TERMINAL TOTAL ............   -67.6 +j    -18.0       69.9       0.9663

ELEMENT = "Line.LN6077784-1"
L2822871                 1       408.0 +j    108.5      422.2       0.9664
L2822871                 2       495.3 +j    133.2      512.9       0.9657
L2822871                 3       304.9 +j     80.8      315.4       0.9667
   TERMINAL TOTAL ............  1208.3 +j    322.5     1250.6       0.9662
M1026872                 1      -407.9 +j   -108.5      422.1       0.9664
M1026872                 2      -495.2 +j   -133.1      512.7       0.9657
M1026872                 3      -304.9 +j    -80.7      315.4       0.9667
   TERMINAL TOTAL ............ -1208.0 +j   -322.3     1250.2       0.9662

ELEMENT = "Line.LN5744338-1"
M1026312                 2       185.7 +j     49.5      192.1       0.9663
   TERMINAL TOTAL ............   185.7 +j     49.5      192.1       0.9663
L2973163                 2      -185.6 +j    -49.4      192.1       0.9663
   TERMINAL TOTAL ............  -185.6 +j    -49.4      192.1       0.9663

ELEMENT = "Line.LN6991381-4"
L3728038                 1        36.1 +j      9.6       37.3       0.9661
   TERMINAL TOTAL ............    36.1 +j      9.6       37.3       0.9661
L3728039                 1       -36.1 +j     -9.6       37.3       0.9660
   TERMINAL TOTAL ............   -36.1 +j     -9.6       37.3       0.9660

ELEMENT = "Line.LN5774480-1"
M1069567                 2       224.2 +j     59.8      232.0       0.9663
   TERMINAL TOTAL ............   224.2 +j     59.8      232.0       0.9663
M1069582                 2      -224.0 +j    -59.6      231.8       0.9663
   TERMINAL TOTAL ............  -224.0 +j    -59.6      231.8       0.9663

ELEMENT = "Line.LN5986938-3"
N1140830                 1        37.9 +j     10.0       39.2       0.9670
   TERMINAL TOTAL ............    37.9 +j     10.0       39.2       0.9670
L3216351                 1       -37.9 +j    -10.0       39.2       0.9670
   TERMINAL TOTAL ............   -37.9 +j    -10.0       39.2       0.9670

ELEMENT = "Line.LN5894230-1"
L2952007                 3        10.3 +j      2.7       10.7       0.9665
   TERMINAL TOTAL ............    10.3 +j      2.7       10.7       0.9665
L2861158                 3       -10.3 +j     -2.8       10.7       0.9661
   TERMINAL TOTAL ............   -10.3 +j     -2.8       10.7       0.9661

ELEMENT = "Line.LN5683858-3"
N1140827                 1        18.1 +j      4.8       18.7       0.9663
N1140827                 2        29.7 +j      7.9       30.8       0.9664
N1140827                 3        20.8 +j      5.5       21.5       0.9664
   TERMINAL TOTAL ............    68.6 +j     18.3       71.0       0.9664
M1026726                 1       -18.1 +j     -4.8       18.7       0.9662
M1026726                 2       -29.7 +j     -7.9       30.8       0.9663
M1026726                 3       -20.8 +j     -5.5       21.5       0.9664
   TERMINAL TOTAL ............   -68.6 +j    -18.3       71.0       0.9663

ELEMENT = "Line.LN5920279-5"
L2730106                 1      2361.3 +j    351.6     2387.4       0.9891
L2730106                 2      2271.8 +j    360.7     2300.2       0.9876
L2730106                 3      1676.6 +j     62.7     1677.8       0.9993
   TERMINAL TOTAL ............  6309.7 +j    774.9     6357.1       0.9925
N1142099                 1     -2360.6 +j   -350.6     2386.5       0.9892
N1142099                 2     -2271.5 +j   -359.6     2299.8       0.9877
N1142099                 3     -1676.6 +j    -62.4     1677.8       0.9993
   TERMINAL TOTAL ............ -6308.7 +j   -772.5     6355.8       0.9926

ELEMENT = "Line.LN6439600-1"
M1026658                 1         9.0 +j      2.4        9.3       0.9663
   TERMINAL TOTAL ............     9.0 +j      2.4        9.3       0.9663
L3172805                 1        -9.0 +j     -2.4        9.3       0.9660
   TERMINAL TOTAL ............    -9.0 +j     -2.4        9.3       0.9660

ELEMENT = "Line.LN5589097-1"
P895112                  1        13.5 +j      3.6       14.0       0.9661
   TERMINAL TOTAL ............    13.5 +j      3.6       14.0       0.9661
L3048962                 1       -13.5 +j     -3.6       14.0       0.9661
   TERMINAL TOTAL ............   -13.5 +j     -3.6       14.0       0.9661

ELEMENT = "Line.LN5651975-1"
L2991914                 1       437.0 +j    117.6      452.5       0.9656
L2991914                 2       106.3 +j     27.6      109.8       0.9679
L2991914                 3       237.8 +j     62.3      245.8       0.9673
   TERMINAL TOTAL ............   781.1 +j    207.5      808.2       0.9665
M1047503                 1      -436.8 +j   -117.5      452.3       0.9657
M1047503                 2      -106.3 +j    -27.6      109.8       0.9679
M1047503                 3      -237.7 +j    -62.3      245.8       0.9673
   TERMINAL TOTAL ............  -780.8 +j   -207.4      807.9       0.9665

ELEMENT = "Line.LN5865236-1"
M1047751                 1        18.0 +j      4.8       18.6       0.9662
   TERMINAL TOTAL ............    18.0 +j      4.8       18.6       0.9662
L2973154                 1       -18.0 +j     -4.8       18.6       0.9662
   TERMINAL TOTAL ............   -18.0 +j     -4.8       18.6       0.9662

ELEMENT = "Line.LN5593232-1"
L3010565                 3        10.3 +j      2.7       10.7       0.9665
   TERMINAL TOTAL ............    10.3 +j      2.7       10.7       0.9665
L2897775                 3       -10.3 +j     -2.8       10.7       0.9661
   TERMINAL TOTAL ............   -10.3 +j     -2.8       10.7       0.9661

ELEMENT = "Line.LN5740283-1"
M1125955                 3        12.4 +j      3.3       12.8       0.9663
   TERMINAL TOTAL ............    12.4 +j      3.3       12.8       0.9663
M1125957                 3       -12.4 +j     -3.3       12.8       0.9663
   TERMINAL TOTAL ............   -12.4 +j     -3.3       12.8       0.9663

ELEMENT = "Line.LN6106559-1"
M1069640                 2        27.6 +j      7.3       28.6       0.9665
   TERMINAL TOTAL ............    27.6 +j      7.3       28.6       0.9665
L2804269                 2       -27.6 +j     -7.4       28.6       0.9664
   TERMINAL TOTAL ............   -27.6 +j     -7.4       28.6       0.9664

ELEMENT = "Line.LN5714056-3"
M1026702                 1       361.4 +j     96.0      373.9       0.9664
M1026702                 2        81.4 +j     21.3       84.1       0.9675
M1026702                 3       180.0 +j     47.5      186.1       0.9669
   TERMINAL TOTAL ............   622.8 +j    164.8      644.2       0.9667
N1139551                 1      -360.8 +j    -95.8      373.3       0.9665
N1139551                 2       -81.4 +j    -21.3       84.1       0.9674
N1139551                 3      -179.8 +j    -47.5      186.0       0.9668
   TERMINAL TOTAL ............  -622.1 +j   -164.6      643.5       0.9667

ELEMENT = "Line.LN5985355-3"
N1136355                 2       393.3 +j    105.1      407.1       0.9661
   TERMINAL TOTAL ............   393.3 +j    105.1      407.1       0.9661
L2783231                 2      -392.9 +j   -105.0      406.7       0.9661
   TERMINAL TOTAL ............  -392.9 +j   -105.0      406.7       0.9661

ELEMENT = "Line.LN5531956-1"
L2748143                 1         9.0 +j      2.4        9.3       0.9662
   TERMINAL TOTAL ............     9.0 +j      2.4        9.3       0.9662
L3251854                 1        -9.0 +j     -2.4        9.3       0.9659
   TERMINAL TOTAL ............    -9.0 +j     -2.4        9.3       0.9659

ELEMENT = "Line.LN5650048-1"
M1069610                 2         9.9 +j      2.6       10.2       0.9665
   TERMINAL TOTAL ............     9.9 +j      2.6       10.2       0.9665
M1069600                 2        -9.9 +j     -2.6       10.2       0.9663
   TERMINAL TOTAL ............    -9.9 +j     -2.6       10.2       0.9663

ELEMENT = "Line.LN6290203-1"
M1069424                 1       155.2 +j     40.7      160.4       0.9673
M1069424                 2       383.5 +j    103.6      397.3       0.9654
M1069424                 3       278.1 +j     74.1      287.8       0.9663
   TERMINAL TOTAL ............   816.8 +j    218.4      845.5       0.9661
L2935549                 1      -155.1 +j    -40.7      160.4       0.9672
L2935549                 2      -383.3 +j   -103.5      397.1       0.9655
L2935549                 3      -278.1 +j    -74.0      287.8       0.9663
   TERMINAL TOTAL ............  -816.6 +j   -218.2      845.2       0.9661

ELEMENT = "Line.LN6134414-1"
P895089                  3        20.7 +j      5.5       21.4       0.9665
   TERMINAL TOTAL ............    20.7 +j      5.5       21.4       0.9665
L3235242                 3       -20.7 +j     -5.5       21.4       0.9664
   TERMINAL TOTAL ............   -20.7 +j     -5.5       21.4       0.9664

ELEMENT = "Line.LN6259998-2"
M1026795                 3        12.4 +j      3.3       12.8       0.9663
   TERMINAL TOTAL ............    12.4 +j      3.3       12.8       0.9663
N1140522                 3       -12.4 +j     -3.3       12.8       0.9662
   TERMINAL TOTAL ............   -12.4 +j     -3.3       12.8       0.9662

ELEMENT = "Line.LN6078767-1"
L3030199                 1       759.1 +j   -104.7      766.3      -0.9906
L3030199                 2       907.7 +j    -53.6      909.3      -0.9983
L3030199                 3      1156.3 +j      0.4     1156.3       1.0000
   TERMINAL TOTAL ............  2823.2 +j   -158.0     2827.6      -0.9984
M1125934                 1      -759.1 +j    104.8      766.3      -0.9906
M1125934                 2      -907.6 +j     53.7      909.2      -0.9983
M1125934                 3     -1156.2 +j     -0.0     1156.2       1.0000
   TERMINAL TOTAL ............ -2822.9 +j    158.5     2827.4      -0.9984

ELEMENT = "Line.LN6017300-1"
M1069189                 3         6.2 +j      1.6        6.4       0.9665
   TERMINAL TOTAL ............     6.2 +j      1.6        6.4       0.9665
L2860487                 3        -6.2 +j     -1.7        6.4       0.9660
   TERMINAL TOTAL ............    -6.2 +j     -1.7        6.4       0.9660

ELEMENT = "Line.LN8979257-2"
221-312488               1         9.0 +j      2.4        9.3       0.9676
221-312488               2         9.9 +j      2.6       10.2       0.9676
221-312488               3        10.3 +j      2.7       10.7       0.9676
   TERMINAL TOTAL ............    29.2 +j      7.6       30.2       0.9676
M1089183                 1        -9.0 +j     -2.4        9.3       0.9673
M1089183                 2        -9.9 +j     -2.6       10.2       0.9673
M1089183                 3       -10.3 +j     -2.7       10.7       0.9673
   TERMINAL TOTAL ............   -29.2 +j     -7.7       30.2       0.9673

ELEMENT = "Line.LN81048109-1"
M1108464                 2        30.0 +j      7.8       31.0       0.9676
   TERMINAL TOTAL ............    30.0 +j      7.8       31.0       0.9676
L3102286                 2       -30.0 +j     -7.9       31.0       0.9672
   TERMINAL TOTAL ............   -30.0 +j     -7.9       31.0       0.9672

ELEMENT = "Line.293471"
F739845                  1         9.0 +j      2.4        9.3       0.9661
F739845                  2         9.9 +j      2.6       10.2       0.9663
F739845                  3        10.3 +j      2.8       10.7       0.9662
   TERMINAL TOTAL ............    29.2 +j      7.8       30.2       0.9662
293471                   1        -9.0 +j     -2.4        9.3       0.9659
293471                   2        -9.9 +j     -2.6       10.2       0.9661
293471                   3       -10.3 +j     -2.8       10.7       0.9661
   TERMINAL TOTAL ............   -29.2 +j     -7.8       30.2       0.9661

ELEMENT = "Line.LN5534965-2"
P827499                  1         9.0 +j      2.4        9.3       0.9660
   TERMINAL TOTAL ............     9.0 +j      2.4        9.3       0.9660
N1139254                 1        -9.0 +j     -2.4        9.3       0.9660
   TERMINAL TOTAL ............    -9.0 +j     -2.4        9.3       0.9660

ELEMENT = "Line.LN5655683-1"
M1026657                 1       141.9 +j     37.7      146.8       0.9665
   TERMINAL TOTAL ............   141.9 +j     37.7      146.8       0.9665
M1026656                 1      -141.9 +j    -37.7      146.8       0.9665
   TERMINAL TOTAL ............  -141.9 +j    -37.7      146.8       0.9665

ELEMENT = "Line.LN5686247-1"
M1108299                 2        13.8 +j      3.7       14.3       0.9667
   TERMINAL TOTAL ............    13.8 +j      3.7       14.3       0.9667
M1108300                 2       -13.8 +j     -3.7       14.3       0.9667
   TERMINAL TOTAL ............   -13.8 +j     -3.7       14.3       0.9667

ELEMENT = "Line.LN6048642-1"
L3198355                 2         0.0 +j     -0.0        0.0      -0.0000
   TERMINAL TOTAL ............     0.0 +j     -0.0        0.0      -0.0000
L2805037                 2         0.0 +j      0.0        0.0       0.9359
   TERMINAL TOTAL ............     0.0 +j      0.0        0.0       0.9359

ELEMENT = "Line.LN5928544-3"
N1137994                 3       103.5 +j     27.5      107.1       0.9665
   TERMINAL TOTAL ............   103.5 +j     27.5      107.1       0.9665
M1069484                 3      -103.5 +j    -27.5      107.1       0.9665
   TERMINAL TOTAL ............  -103.5 +j    -27.5      107.1       0.9665

ELEMENT = "Line.LN6108172-1"
L2860504                 1        18.0 +j      4.8       18.6       0.9665
   TERMINAL TOTAL ............    18.0 +j      4.8       18.6       0.9665
L2860493                 1       -18.0 +j     -4.8       18.6       0.9661
   TERMINAL TOTAL ............   -18.0 +j     -4.8       18.6       0.9661

ELEMENT = "Line.LN5532754-1"
M1026783                 1       401.0 +j    107.3      415.1       0.9660
M1026783                 2       106.2 +j     27.7      109.8       0.9676
M1026783                 3       197.6 +j     51.8      204.3       0.9673
   TERMINAL TOTAL ............   704.8 +j    186.9      729.2       0.9666
M1026780                 1      -400.9 +j   -107.3      415.0       0.9660
M1026780                 2      -106.2 +j    -27.7      109.8       0.9676
M1026780                 3      -197.6 +j    -51.8      204.3       0.9673
   TERMINAL TOTAL ............  -704.7 +j   -186.8      729.1       0.9666

ELEMENT = "Line.LN5591834-1"
P895111                  3        26.8 +j      7.1       27.8       0.9667
   TERMINAL TOTAL ............    26.8 +j      7.1       27.8       0.9667
L2895496                 3       -26.8 +j     -7.1       27.8       0.9666
   TERMINAL TOTAL ............   -26.8 +j     -7.1       27.8       0.9666

ELEMENT = "Line.LN6347196-2"
N1140819                 1       194.9 +j     51.6      201.6       0.9667
N1140819                 2        75.5 +j     19.8       78.0       0.9674
N1140819                 3       179.6 +j     47.5      185.8       0.9668
   TERMINAL TOTAL ............   450.0 +j    118.9      465.4       0.9668
M1026700                 1      -194.9 +j    -51.6      201.6       0.9667
M1026700                 2       -75.5 +j    -19.8       78.0       0.9674
M1026700                 3      -179.6 +j    -47.5      185.8       0.9668
   TERMINAL TOTAL ............  -449.9 +j   -118.9      465.3       0.9668

ELEMENT = "Line.LN5532741-1"
M1089173                 3        63.1 +j     16.7       65.2       0.9668
   TERMINAL TOTAL ............    63.1 +j     16.7       65.2       0.9668
L2935551                 3       -63.1 +j    -16.7       65.2       0.9667
   TERMINAL TOTAL ............   -63.1 +j    -16.7       65.2       0.9667

ELEMENT = "Line.LN5804803-1"
M1026344                 1         5.4 +j      1.4        5.6       0.9679
   TERMINAL TOTAL ............     5.4 +j      1.4        5.6       0.9679
M1026364                 1        -5.4 +j     -1.4        5.6       0.9662
   TERMINAL TOTAL ............    -5.4 +j     -1.4        5.6       0.9662

ELEMENT = "Line.LN6169248-1"
L2879070                 1       792.6 +j    214.2      821.0       0.9654
L2879070                 2       531.9 +j    145.6      551.5       0.9645
L2879070                 3       326.4 +j     86.4      337.7       0.9667
   TERMINAL TOTAL ............  1650.9 +j    446.1     1710.1       0.9654
L3216345                 1      -791.8 +j   -213.5      820.1       0.9655
L3216345                 2      -531.8 +j   -145.3      551.3       0.9646
L3216345                 3      -326.3 +j    -86.4      337.6       0.9667
   TERMINAL TOTAL ............ -1649.9 +j   -445.2     1709.0       0.9655

ELEMENT = "Line.LN5532786-2"
M1069428                 2        15.8 +j      4.2       16.3       0.9663
   TERMINAL TOTAL ............    15.8 +j      4.2       16.3       0.9663
N1139257                 2       -15.8 +j     -4.2       16.3       0.9663
   TERMINAL TOTAL ............   -15.8 +j     -4.2       16.3       0.9663

ELEMENT = "Line.LN5744339-1"
L2991919                 1       114.5 +j     30.5      118.5       0.9663
   TERMINAL TOTAL ............   114.5 +j     30.5      118.5       0.9663
M1026361                 1      -114.5 +j    -30.5      118.5       0.9663
   TERMINAL TOTAL ............  -114.5 +j    -30.5      118.5       0.9663

ELEMENT = "Line.LN5531255-3"
N1147857                 1       118.1 +j     31.4      122.2       0.9664
   TERMINAL TOTAL ............   118.1 +j     31.4      122.2       0.9664
M1009742                 1      -118.1 +j    -31.4      122.2       0.9664
   TERMINAL TOTAL ............  -118.1 +j    -31.4      122.2       0.9664

ELEMENT = "Line.LN5926308-2"
Q14412                   1       283.5 +j     75.0      293.3       0.9668
Q14412                   2       342.4 +j     92.6      354.7       0.9653
Q14412                   3       137.6 +j     36.1      142.3       0.9672
   TERMINAL TOTAL ............   763.5 +j    203.7      790.2       0.9662
M1047325                 1      -283.4 +j    -75.0      293.2       0.9668
M1047325                 2      -342.3 +j    -92.5      354.6       0.9654
M1047325                 3      -137.6 +j    -36.1      142.3       0.9672
   TERMINAL TOTAL ............  -763.3 +j   -203.6      790.0       0.9662

ELEMENT = "Line.LN5683856-3"
N1139263                 1         9.0 +j      2.4        9.3       0.9660
   TERMINAL TOTAL ............     9.0 +j      2.4        9.3       0.9660
L3048227                 1        -9.0 +j     -2.4        9.3       0.9659
   TERMINAL TOTAL ............    -9.0 +j     -2.4        9.3       0.9659

ELEMENT = "Line.LN6171502-1"
P827506                  1        14.4 +j      3.8       14.9       0.9664
   TERMINAL TOTAL ............    14.4 +j      3.8       14.9       0.9664
M1069469                 1       -14.4 +j     -3.8       14.9       0.9664
   TERMINAL TOTAL ............   -14.4 +j     -3.8       14.9       0.9664

ELEMENT = "Line.LN5593228-1"
M1027019                 2         9.9 +j      2.6       10.2       0.9663
   TERMINAL TOTAL ............     9.9 +j      2.6       10.2       0.9663
L2785522                 2        -9.9 +j     -2.6       10.2       0.9661
   TERMINAL TOTAL ............    -9.9 +j     -2.6       10.2       0.9661

ELEMENT = "Line.LN6380800-1"
L3216338                 2         9.9 +j      2.6       10.2       0.9663
   TERMINAL TOTAL ............     9.9 +j      2.6       10.2       0.9663
L2973146                 2        -9.9 +j     -2.6       10.2       0.9661
   TERMINAL TOTAL ............    -9.9 +j     -2.6       10.2       0.9661

ELEMENT = "Line.LN6199525-2"
M3037452                 1         3.6 +j      1.0        3.7       0.9665
   TERMINAL TOTAL ............     3.6 +j      1.0        3.7       0.9665
L2973164                 1        -3.6 +j     -1.0        3.7       0.9659
   TERMINAL TOTAL ............    -3.6 +j     -1.0        3.7       0.9659

ELEMENT = "Line.LN5772710-2"
L3120376                 1        72.0 +j     19.2       74.5       0.9662
   TERMINAL TOTAL ............    72.0 +j     19.2       74.5       0.9662
M1026925                 1       -72.0 +j    -19.2       74.5       0.9662
   TERMINAL TOTAL ............   -72.0 +j    -19.2       74.5       0.9662

ELEMENT = "Line.LN8961760-1"
M1047612                 3        36.3 +j      9.5       37.5       0.9674
   TERMINAL TOTAL ............    36.3 +j      9.5       37.5       0.9674
P828360                  3       -36.3 +j     -9.5       37.5       0.9674
   TERMINAL TOTAL ............   -36.3 +j     -9.5       37.5       0.9674

ELEMENT = "Line.LN6047556-1"
M1089195                 3        10.3 +j      2.7       10.7       0.9664
   TERMINAL TOTAL ............    10.3 +j      2.7       10.7       0.9664
L3141393                 3       -10.3 +j     -2.8       10.7       0.9661
   TERMINAL TOTAL ............   -10.3 +j     -2.8       10.7       0.9661

ELEMENT = "Line.LN6138603-1"
M1026946                 2        15.8 +j      4.2       16.3       0.9669
   TERMINAL TOTAL ............    15.8 +j      4.2       16.3       0.9669
M1026940                 2       -15.8 +j     -4.2       16.3       0.9666
   TERMINAL TOTAL ............   -15.8 +j     -4.2       16.3       0.9666

ELEMENT = "Line.LN6108139-1"
M1047471                 2         5.9 +j      1.6        6.1       0.9662
   TERMINAL TOTAL ............     5.9 +j      1.6        6.1       0.9662
L3216349                 2        -5.9 +j     -1.6        6.1       0.9661
   TERMINAL TOTAL ............    -5.9 +j     -1.6        6.1       0.9661

ELEMENT = "Line.LN6388581-2"
M1047401                 1         5.4 +j      1.4        5.6       0.9683
   TERMINAL TOTAL ............     5.4 +j      1.4        5.6       0.9683
L2748132                 1        -5.4 +j     -1.4        5.6       0.9680
   TERMINAL TOTAL ............    -5.4 +j     -1.4        5.6       0.9680

ELEMENT = "Line.LN5774460-1"
L3122820                 1         5.4 +j      1.4        5.6       0.9663
   TERMINAL TOTAL ............     5.4 +j      1.4        5.6       0.9663
L3141398                 1        -5.4 +j     -1.4        5.6       0.9659
   TERMINAL TOTAL ............    -5.4 +j     -1.4        5.6       0.9659

ELEMENT = "Line.LN5624387-1"
M1108360                 3        15.5 +j      4.1       16.1       0.9663
   TERMINAL TOTAL ............    15.5 +j      4.1       16.1       0.9663
L3048968                 3       -15.5 +j     -4.1       16.1       0.9662
   TERMINAL TOTAL ............   -15.5 +j     -4.1       16.1       0.9662

ELEMENT = "Line.LN6137087-1"
L2801950                 3        82.7 +j     22.0       85.5       0.9665
   TERMINAL TOTAL ............    82.7 +j     22.0       85.5       0.9665
M1069224                 3       -82.7 +j    -22.0       85.5       0.9665
   TERMINAL TOTAL ............   -82.7 +j    -22.0       85.5       0.9665

ELEMENT = "Line.LN6077809-1"
L2766746                 3       103.4 +j     27.5      107.0       0.9664
   TERMINAL TOTAL ............   103.4 +j     27.5      107.0       0.9664
M1027073                 3      -103.4 +j    -27.5      107.0       0.9664
   TERMINAL TOTAL ............  -103.4 +j    -27.5      107.0       0.9664

ELEMENT = "Line.LN6440079-1"
L2895496                 3        26.8 +j      7.1       27.8       0.9666
   TERMINAL TOTAL ............    26.8 +j      7.1       27.8       0.9666
M1142873                 3       -26.8 +j     -7.1       27.8       0.9665
   TERMINAL TOTAL ............   -26.8 +j     -7.1       27.8       0.9665

ELEMENT = "Line.LN5804794-1"
M1069181                 1        82.0 +j     21.9       84.9       0.9661
   TERMINAL TOTAL ............    82.0 +j     21.9       84.9       0.9661
L2973151                 1       -82.0 +j    -21.9       84.9       0.9661
   TERMINAL TOTAL ............   -82.0 +j    -21.9       84.9       0.9661

ELEMENT = "Line.LN5654484-1"
L3179682                 3        10.3 +j      2.8       10.7       0.9662
   TERMINAL TOTAL ............    10.3 +j      2.8       10.7       0.9662
L2786274                 3       -10.3 +j     -2.8       10.7       0.9661
   TERMINAL TOTAL ............   -10.3 +j     -2.8       10.7       0.9661

ELEMENT = "Line.LN5774465-1"
L3066816                 1        18.1 +j      4.7       18.7       0.9678
   TERMINAL TOTAL ............    18.1 +j      4.7       18.7       0.9678
M1026667                 1       -18.1 +j     -4.7       18.7       0.9676
   TERMINAL TOTAL ............   -18.1 +j     -4.7       18.7       0.9676

ELEMENT = "Line.LN5473349-1"
M1108529                 1      2204.1 +j    284.5     2222.4       0.9918
M1108529                 2      2238.2 +j    317.1     2260.5       0.9901
M1108529                 3      1580.5 +j     27.6     1580.7       0.9998
   TERMINAL TOTAL ............  6022.7 +j    629.2     6055.5       0.9946
M1108532                 1     -2203.5 +j   -283.8     2221.7       0.9918
M1108532                 2     -2237.9 +j   -316.0     2260.1       0.9902
M1108532                 3     -1580.5 +j    -27.3     1580.8       0.9999
   TERMINAL TOTAL ............ -6021.8 +j   -627.1     6054.4       0.9946

ELEMENT = "Line.LN6169253-1"
L2766723                 1         9.0 +j      2.4        9.3       0.9662
   TERMINAL TOTAL ............     9.0 +j      2.4        9.3       0.9662
L3122822                 1        -9.0 +j     -2.4        9.3       0.9660
   TERMINAL TOTAL ............    -9.0 +j     -2.4        9.3       0.9660

ELEMENT = "Line.LN6350536-1"
L2673312                 1         5.4 +j      1.4        5.6       0.9668
   TERMINAL TOTAL ............     5.4 +j      1.4        5.6       0.9668
L3235247                 1        -5.4 +j     -1.4        5.6       0.9659
   TERMINAL TOTAL ............    -5.4 +j     -1.4        5.6       0.9659

ELEMENT = "Line.LN6048523-1"
M1166391                 3       149.0 +j     39.6      154.2       0.9665
   TERMINAL TOTAL ............   149.0 +j     39.6      154.2       0.9665
L3254873                 3      -148.9 +j    -39.5      154.1       0.9665
   TERMINAL TOTAL ............  -148.9 +j    -39.5      154.1       0.9665

ELEMENT = "Line.LN5594152-1"
L2861157                 3       166.3 +j     44.3      172.1       0.9663
   TERMINAL TOTAL ............   166.3 +j     44.3      172.1       0.9663
P901951                  3      -166.2 +j    -44.2      172.0       0.9664
   TERMINAL TOTAL ............  -166.2 +j    -44.2      172.0       0.9664

ELEMENT = "Line.LN5865248-1"
M1047346                 1       333.1 +j     88.1      344.6       0.9668
M1047346                 2       358.3 +j     97.0      371.2       0.9653
M1047346                 3       137.7 +j     36.1      142.4       0.9674
   TERMINAL TOTAL ............   829.1 +j    221.2      858.1       0.9662
M1047345                 1      -332.9 +j    -88.1      344.4       0.9668
M1047345                 2      -358.1 +j    -96.9      371.0       0.9653
M1047345                 3      -137.7 +j    -36.1      142.4       0.9674
   TERMINAL TOTAL ............  -828.8 +j   -221.1      857.8       0.9662

ELEMENT = "Line.LN6046143-1"
L2989596                 2         3.9 +j      1.0        4.1       0.9667
   TERMINAL TOTAL ............     3.9 +j      1.0        4.1       0.9667
L2822873                 2        -3.9 +j     -1.1        4.1       0.9660
   TERMINAL TOTAL ............    -3.9 +j     -1.1        4.1       0.9660

ELEMENT = "Line.LN5803287-1"
M1108328                 3        20.8 +j      5.5       21.5       0.9663
   TERMINAL TOTAL ............    20.8 +j      5.5       21.5       0.9663
L2875754                 3       -20.8 +j     -5.5       21.5       0.9663
   TERMINAL TOTAL ............   -20.8 +j     -5.5       21.5       0.9663

ELEMENT = "Line.LN5589094-1"
L2786204                 3       230.0 +j     61.6      238.1       0.9659
   TERMINAL TOTAL ............   230.0 +j     61.6      238.1       0.9659
M1209819                 3      -229.8 +j    -61.6      237.9       0.9659
   TERMINAL TOTAL ............  -229.8 +j    -61.6      237.9       0.9659

ELEMENT = "Line.LN5954983-1"
P901972                  1       118.1 +j     31.4      122.2       0.9664
   TERMINAL TOTAL ............   118.1 +j     31.4      122.2       0.9664
M1009726                 1      -118.0 +j    -31.4      122.1       0.9664
   TERMINAL TOTAL ............  -118.0 +j    -31.4      122.1       0.9664

ELEMENT = "Line.LN5924696-2"
M1047702                 1         5.4 +j      1.4        5.6       0.9664
   TERMINAL TOTAL ............     5.4 +j      1.4        5.6       0.9664
N1137001                 1        -5.4 +j     -1.4        5.6       0.9661
   TERMINAL TOTAL ............    -5.4 +j     -1.4        5.6       0.9661

ELEMENT = "Line.LN6506311-4"
L2767340                 1        -0.0 +j     -0.0        0.0       0.0246
L2767340                 2        -0.0 +j     -0.0        0.0       0.0502
L2767340                 3         6.2 +j      1.6        6.4       0.9664
   TERMINAL TOTAL ............     6.2 +j      1.6        6.4       0.9664
M3037449                 1         0.0 +j     -0.0        0.0      -0.8756
M3037449                 2         0.0 +j      0.0        0.0       0.8918
M3037449                 3        -6.2 +j     -1.6        6.4       0.9664
   TERMINAL TOTAL ............    -6.2 +j     -1.6        6.4       0.9664

ELEMENT = "Line.LN5653493-1"
M1047457                 2       117.7 +j     31.3      121.8       0.9664
   TERMINAL TOTAL ............   117.7 +j     31.3      121.8       0.9664
L2710546                 2      -117.7 +j    -31.3      121.8       0.9664
   TERMINAL TOTAL ............  -117.7 +j    -31.3      121.8       0.9664

ELEMENT = "Line.LN5684836-1"
L2674027                 1      2209.0 +j    291.3     2228.1       0.9914
L2674027                 2      2240.5 +j    325.7     2264.0       0.9896
L2674027                 3      1668.4 +j     53.5     1669.3       0.9995
   TERMINAL TOTAL ............  6117.9 +j    670.6     6154.6       0.9940
L2692633                 1     -2207.0 +j   -288.7     2225.8       0.9916
L2692633                 2     -2239.6 +j   -322.4     2262.7       0.9898
L2692633                 3     -1668.4 +j    -52.7     1669.3       0.9995
   TERMINAL TOTAL ............ -6115.1 +j   -663.8     6151.0       0.9942

ELEMENT = "Line.LN5715016-3"
N1142108                 1         5.4 +j      1.4        5.6       0.9663
   TERMINAL TOTAL ............     5.4 +j      1.4        5.6       0.9663
L2674051                 1        -5.4 +j     -1.4        5.6       0.9659
   TERMINAL TOTAL ............    -5.4 +j     -1.4        5.6       0.9659

ELEMENT = "Line.LN6138614-1"
M1069135                 1       352.4 +j   -215.7      413.2      -0.8529
M1069135                 2       359.5 +j   -207.7      415.1      -0.8659
M1069135                 3       169.0 +j   -275.4      323.2      -0.5230
   TERMINAL TOTAL ............   880.9 +j   -698.8     1124.4      -0.7834
R18242                   1      -352.0 +j    215.8      412.9      -0.8526
R18242                   2      -359.1 +j    207.8      414.9      -0.8655
R18242                   3      -168.9 +j    275.5      323.1      -0.5226
   TERMINAL TOTAL ............  -880.0 +j    699.1     1123.9      -0.7830

ELEMENT = "Line.LN6077781-2"
M1047534                 1      1882.8 +j    514.9     1951.9       0.9646
M1047534                 2      1723.7 +j    481.4     1789.7       0.9631
M1047534                 3      1410.9 +j    380.0     1461.2       0.9656
   TERMINAL TOTAL ............  5017.4 +j   1376.3     5202.8       0.9644
N1136663                 1     -1878.0 +j   -511.0     1946.3       0.9649
N1136663                 2     -1720.6 +j   -477.9     1785.8       0.9635
N1136663                 3     -1409.0 +j   -378.3     1458.9       0.9658
   TERMINAL TOTAL ............ -5007.7 +j  -1367.1     5190.9       0.9647

ELEMENT = "Line.LN5675121-1"
M1108508                 3         4.1 +j      1.1        4.3       0.9667
   TERMINAL TOTAL ............     4.1 +j      1.1        4.3       0.9667
L3097861                 3        -4.1 +j     -1.1        4.3       0.9660
   TERMINAL TOTAL ............    -4.1 +j     -1.1        4.3       0.9660

ELEMENT = "Line.LN5773046-1"
M1069560                 2       244.2 +j     65.1      252.8       0.9662
   TERMINAL TOTAL ............   244.2 +j     65.1      252.8       0.9662
M1069567                 2      -244.1 +j    -65.1      252.6       0.9663
   TERMINAL TOTAL ............  -244.1 +j    -65.1      252.6       0.9663

ELEMENT = "Line.LN6380809-2"
L2973153                 1       164.6 +j     43.2      170.1       0.9673
L2973153                 2       507.4 +j    137.8      525.8       0.9650
L2973153                 3        57.9 +j     15.1       59.8       0.9675
   TERMINAL TOTAL ............   729.8 +j    196.1      755.7       0.9657
N1136998                 1      -164.5 +j    -43.2      170.1       0.9673
N1136998                 2      -507.3 +j   -137.8      525.7       0.9650
N1136998                 3       -57.9 +j    -15.1       59.8       0.9675
   TERMINAL TOTAL ............  -729.7 +j   -196.1      755.6       0.9658

ELEMENT = "Line.LN6018326-1"
L2898515                 3        12.4 +j      3.3       12.8       0.9667
   TERMINAL TOTAL ............    12.4 +j      3.3       12.8       0.9667
M1166387                 3       -12.4 +j     -3.3       12.8       0.9665
   TERMINAL TOTAL ............   -12.4 +j     -3.3       12.8       0.9665

ELEMENT = "Line.LN5472356-1"
M1047442                 2         3.9 +j      1.0        4.1       0.9665
   TERMINAL TOTAL ............     3.9 +j      1.0        4.1       0.9665
L3235250                 2        -3.9 +j     -1.1        4.1       0.9660
   TERMINAL TOTAL ............    -3.9 +j     -1.1        4.1       0.9660

ELEMENT = "Line.LN6139641-1"
M1142871                 1      2771.9 +j    549.0     2825.7       0.9809
M1142871                 2      2686.7 +j    588.8     2750.5       0.9768
M1142871                 3      1974.4 +j    169.0     1981.6       0.9964
   TERMINAL TOTAL ............  7433.0 +j   1306.8     7547.0       0.9849
M1142874                 1     -2770.2 +j   -546.8     2823.6       0.9811
M1142874                 2     -2686.1 +j   -586.2     2749.3       0.9770
M1142874                 3     -1974.4 +j   -168.3     1981.6       0.9964
   TERMINAL TOTAL ............ -7430.7 +j  -1301.3     7543.8       0.9850

ELEMENT = "Line.LN6018341-1"
L2955081                 1       714.7 +j   -119.5      724.6      -0.9863
L2955081                 2       822.5 +j    -78.4      826.3      -0.9955
L2955081                 3      1117.0 +j    -18.0     1117.2      -0.9999
   TERMINAL TOTAL ............  2654.3 +j   -215.9     2663.0      -0.9967
M1108315                 1      -714.7 +j    119.8      724.7      -0.9862
M1108315                 2      -822.2 +j     78.7      826.0      -0.9955
M1108315                 3     -1116.7 +j     19.0     1116.8      -0.9999
   TERMINAL TOTAL ............ -2653.5 +j    217.5     2662.4      -0.9967

ELEMENT = "Line.LN6017302-1"
L2973162                 1        14.4 +j      3.8       14.9       0.9671
L2973162                 2       270.3 +j     72.4      279.8       0.9660
L2973162                 3         6.2 +j      1.6        6.4       0.9681
   TERMINAL TOTAL ............   290.9 +j     77.7      301.1       0.9661
M1026333                 1       -14.4 +j     -3.8       14.9       0.9669
M1026333                 2      -270.2 +j    -72.3      279.7       0.9660
M1026333                 3        -6.2 +j     -1.6        6.4       0.9677
   TERMINAL TOTAL ............  -290.8 +j    -77.7      301.0       0.9661

ELEMENT = "Line.LN6199505-1"
M1009832                 2         3.9 +j      1.0        4.1       0.9663
   TERMINAL TOTAL ............     3.9 +j      1.0        4.1       0.9663
L2860479                 2        -3.9 +j     -1.1        4.1       0.9660
   TERMINAL TOTAL ............    -3.9 +j     -1.1        4.1       0.9660

ELEMENT = "Line.LN5682327-1"
M1026854                 1       136.1 +j     36.3      140.9       0.9662
   TERMINAL TOTAL ............   136.1 +j     36.3      140.9       0.9662
P901894                  1      -136.1 +j    -36.3      140.9       0.9662
   TERMINAL TOTAL ............  -136.1 +j    -36.3      140.9       0.9662

ELEMENT = "Line.LN6290243-1"
M1026485                 2        19.9 +j      5.3       20.6       0.9664
   TERMINAL TOTAL ............    19.9 +j      5.3       20.6       0.9664
M1026492                 2       -19.9 +j     -5.3       20.6       0.9663
   TERMINAL TOTAL ............   -19.9 +j     -5.3       20.6       0.9663

ELEMENT = "Line.X8223_48332_SW"
D6413567-3_INT           1       560.6 +j   -161.4      583.4      -0.9610
D6413567-3_INT           2       603.9 +j   -140.2      620.0      -0.9741
D6413567-3_INT           3       219.8 +j   -261.1      341.3      -0.6439
   TERMINAL TOTAL ............  1384.3 +j   -562.7     1494.3      -0.9264
E182724                  1      -560.6 +j    161.4      583.4      -0.9610
E182724                  2      -603.9 +j    140.2      620.0      -0.9741
E182724                  3      -219.8 +j    261.1      341.3      -0.6439
   TERMINAL TOTAL ............ -1384.3 +j    562.7     1494.3      -0.9264

ELEMENT = "Line.LN6413567-3"
N1139541                 1       560.8 +j   -161.3      583.5      -0.9610
N1139541                 2       604.1 +j   -140.1      620.1      -0.9741
N1139541                 3       219.8 +j   -261.1      341.3      -0.6440
   TERMINAL TOTAL ............  1384.6 +j   -562.6     1494.6      -0.9265
D6413567-3_INT           1      -560.6 +j    161.4      583.4      -0.9610
D6413567-3_INT           2      -603.9 +j    140.2      620.0      -0.9741
D6413567-3_INT           3      -219.8 +j    261.1      341.3      -0.6439
   TERMINAL TOTAL ............ -1384.3 +j    562.7     1494.3      -0.9264

ELEMENT = "Line.LN5591731-3"
M4122658                 1      2394.6 +j    367.2     2422.6       0.9884
M4122658                 2      2273.7 +j    369.6     2303.5       0.9870
M4122658                 3      1687.0 +j     67.6     1688.3       0.9992
   TERMINAL TOTAL ............  6355.2 +j    804.4     6405.9       0.9921
L2933135                 1     -2394.5 +j   -367.1     2422.5       0.9884
L2933135                 2     -2273.7 +j   -369.5     2303.5       0.9871
L2933135                 3     -1687.0 +j    -67.5     1688.3       0.9992
   TERMINAL TOTAL ............ -6355.2 +j   -804.2     6405.8       0.9921

ELEMENT = "Line.LN5653470-1"
M1026702                 1         9.0 +j      2.4        9.3       0.9662
M1026702                 2         9.9 +j      2.6       10.2       0.9663
M1026702                 3        10.3 +j      2.7       10.7       0.9664
   TERMINAL TOTAL ............    29.2 +j      7.8       30.2       0.9663
L2729414                 1        -9.0 +j     -2.4        9.3       0.9660
L2729414                 2        -9.9 +j     -2.6       10.2       0.9660
L2729414                 3       -10.3 +j     -2.8       10.7       0.9661
   TERMINAL TOTAL ............   -29.2 +j     -7.8       30.2       0.9660

ELEMENT = "Line.LN6017316-1"
L2729430                 2       243.1 +j     64.8      251.6       0.9662
   TERMINAL TOTAL ............   243.1 +j     64.8      251.6       0.9662
L2766742                 2      -242.8 +j    -64.7      251.3       0.9663
   TERMINAL TOTAL ............  -242.8 +j    -64.7      251.3       0.9663

ELEMENT = "Line.LN5926299-1"
M1026972                 2        19.8 +j      5.3       20.5       0.9663
   TERMINAL TOTAL ............    19.8 +j      5.3       20.5       0.9663
L2860483                 2       -19.8 +j     -5.3       20.5       0.9662
   TERMINAL TOTAL ............   -19.8 +j     -5.3       20.5       0.9662

ELEMENT = "Line.LN5683831-1"
L2860490                 1       333.5 +j     88.2      345.0       0.9668
L2860490                 2       358.7 +j     97.2      371.6       0.9652
L2860490                 3       168.8 +j     44.3      174.5       0.9672
   TERMINAL TOTAL ............   861.0 +j    229.7      891.1       0.9662
L3104134                 1      -333.3 +j    -88.1      344.7       0.9668
L3104134                 2      -358.5 +j    -97.1      371.4       0.9652
L3104134                 3      -168.7 +j    -44.3      174.5       0.9672
   TERMINAL TOTAL ............  -860.5 +j   -229.5      890.6       0.9662

ELEMENT = "Line.LN6352700-1"
M1089144                 1        36.0 +j      9.6       37.2       0.9665
   TERMINAL TOTAL ............    36.0 +j      9.6       37.2       0.9665
P827522                  1       -36.0 +j     -9.6       37.2       0.9665
   TERMINAL TOTAL ............   -36.0 +j     -9.6       37.2       0.9665

ELEMENT = "Line.LN6047570-1"
M1089118                 1         5.4 +j      1.4        5.6       0.9660
   TERMINAL TOTAL ............     5.4 +j      1.4        5.6       0.9660
L3048208                 1        -5.4 +j     -1.4        5.6       0.9658
   TERMINAL TOTAL ............    -5.4 +j     -1.4        5.6       0.9658

ELEMENT = "Line.LN5624342-1"
M1108505                 1      2223.5 +j    300.7     2243.7       0.9910
M1108505                 2      2267.5 +j    341.2     2293.0       0.9889
M1108505                 3      1668.3 +j     55.8     1669.3       0.9994
   TERMINAL TOTAL ............  6159.3 +j    697.8     6198.7       0.9936
L2955047                 1     -2221.8 +j   -298.6     2241.8       0.9911
L2955047                 2     -2266.8 +j   -338.5     2291.9       0.9890
L2955047                 3     -1668.4 +j    -55.1     1669.3       0.9995
   TERMINAL TOTAL ............ -6157.0 +j   -692.2     6195.8       0.9937

ELEMENT = "Line.LN6259992-1"
M1089148                 1         9.0 +j      2.4        9.3       0.9662
   TERMINAL TOTAL ............     9.0 +j      2.4        9.3       0.9662
L2766721                 1        -9.0 +j     -2.4        9.3       0.9660
   TERMINAL TOTAL ............    -9.0 +j     -2.4        9.3       0.9660

ELEMENT = "Line.LN5841919-1"
M1026745                 2         5.9 +j      1.6        6.1       0.9665
   TERMINAL TOTAL ............     5.9 +j      1.6        6.1       0.9665
L3029183                 2        -5.9 +j     -1.6        6.1       0.9661
   TERMINAL TOTAL ............    -5.9 +j     -1.6        6.1       0.9661

ELEMENT = "Line.LN6380811-1"
L2710512                 2       112.8 +j     29.9      116.8       0.9666
   TERMINAL TOTAL ............   112.8 +j     29.9      116.8       0.9666
M1047828                 2      -112.8 +j    -29.9      116.7       0.9666
   TERMINAL TOTAL ............  -112.8 +j    -29.9      116.7       0.9666

ELEMENT = "Line.LN5683832-1"
M1047342                 1         9.0 +j      2.4        9.3       0.9662
   TERMINAL TOTAL ............     9.0 +j      2.4        9.3       0.9662
L3197645                 1        -9.0 +j     -2.4        9.3       0.9659
   TERMINAL TOTAL ............    -9.0 +j     -2.4        9.3       0.9659

ELEMENT = "Line.LN6077778-1"
M1069192                 1         9.0 +j      2.4        9.3       0.9661
   TERMINAL TOTAL ............     9.0 +j      2.4        9.3       0.9661
L3235253                 1        -9.0 +j     -2.4        9.3       0.9659
   TERMINAL TOTAL ............    -9.0 +j     -2.4        9.3       0.9659

ELEMENT = "Line.LN5561442-2"
L3214071                 1      2732.3 +j    511.0     2779.7       0.9830
L3214071                 2      2677.5 +j    548.7     2733.1       0.9796
L3214071                 3      1937.2 +j    149.5     1943.0       0.9970
   TERMINAL TOTAL ............  7347.0 +j   1209.3     7445.8       0.9867
M1125952                 1     -2729.9 +j   -507.9     2776.7       0.9831
M1125952                 2     -2676.6 +j   -545.1     2731.6       0.9799
M1125952                 3     -1937.2 +j   -148.7     1942.9       0.9971
   TERMINAL TOTAL ............ -7343.7 +j  -1201.6     7441.4       0.9869

ELEMENT = "Line.LN6259983-1"
M1027101                 2         9.9 +j      2.6       10.2       0.9666
   TERMINAL TOTAL ............     9.9 +j      2.6       10.2       0.9666
L2860480                 2        -9.9 +j     -2.6       10.2       0.9661
   TERMINAL TOTAL ............    -9.9 +j     -2.6       10.2       0.9661

ELEMENT = "Line.LN5865244-1"
L2710517                 1       111.0 +j     29.4      114.8       0.9667
   TERMINAL TOTAL ............   111.0 +j     29.4      114.8       0.9667
M1026646                 1      -111.0 +j    -29.4      114.8       0.9667
   TERMINAL TOTAL ............  -111.0 +j    -29.4      114.8       0.9667

ELEMENT = "Line.LN6350555-1"
M1069662                 2         5.9 +j      1.6        6.1       0.9664
   TERMINAL TOTAL ............     5.9 +j      1.6        6.1       0.9664
L2935547                 2        -5.9 +j     -1.6        6.1       0.9660
   TERMINAL TOTAL ............    -5.9 +j     -1.6        6.1       0.9660

ELEMENT = "Line.LN5714039-1"
M1026931                 1        39.6 +j     10.6       41.0       0.9662
   TERMINAL TOTAL ............    39.6 +j     10.6       41.0       0.9662
L3216336                 1       -39.6 +j    -10.6       41.0       0.9662
   TERMINAL TOTAL ............   -39.6 +j    -10.6       41.0       0.9662

ELEMENT = "Line.LN5889821-1"
L3142049                 1      2339.4 +j    341.6     2364.2       0.9895
L3142049                 2      2270.5 +j    355.0     2298.1       0.9880
L3142049                 3      1672.5 +j     60.2     1673.5       0.9994
   TERMINAL TOTAL ............  6282.4 +j    756.8     6327.8       0.9928
M1108493                 1     -2336.6 +j   -337.8     2360.9       0.9897
M1108493                 2     -2269.6 +j   -350.8     2296.6       0.9883
M1108493                 3     -1672.5 +j    -59.2     1673.5       0.9994
   TERMINAL TOTAL ............ -6278.6 +j   -747.8     6323.0       0.9930

ELEMENT = "Line.LN5804791-1"
M1069169                 1       425.3 +j   -197.5      468.9      -0.9070
M1069169                 2       602.9 +j   -140.7      619.1      -0.9738
M1069169                 3       219.6 +j   -261.2      341.2      -0.6434
   TERMINAL TOTAL ............  1247.7 +j   -599.4     1384.2      -0.9014
L3010556                 1      -424.7 +j    197.5      468.4      -0.9068
L3010556                 2      -602.1 +j    141.1      618.4      -0.9736
L3010556                 3      -219.4 +j    261.3      341.2      -0.6430
   TERMINAL TOTAL ............ -1246.2 +j    599.9     1383.1      -0.9010

ELEMENT = "Line.LN5653486-1"
L2991933                 3        31.1 +j      8.3       32.2       0.9664
   TERMINAL TOTAL ............    31.1 +j      8.3       32.2       0.9664
L3122837                 3       -31.1 +j     -8.3       32.2       0.9663
   TERMINAL TOTAL ............   -31.1 +j     -8.3       32.2       0.9663

ELEMENT = "Line.LN5926286-1"
L3216336                 1        30.6 +j      8.1       31.6       0.9663
   TERMINAL TOTAL ............    30.6 +j      8.1       31.6       0.9663
L2691936                 1       -30.6 +j     -8.2       31.6       0.9662
   TERMINAL TOTAL ............   -30.6 +j     -8.2       31.6       0.9662

ELEMENT = "Line.LN6318859-1"
L2897772                 1        -0.0 +j     -0.0        0.0       0.0000
   TERMINAL TOTAL ............    -0.0 +j     -0.0        0.0       0.0000
L3101814                 1         0.0 +j      0.0        0.0       0.9228
   TERMINAL TOTAL ............     0.0 +j      0.0        0.0       0.9228

ELEMENT = "Line.LN5926316-1"
L2766732                 2        80.0 +j     21.4       82.8       0.9661
   TERMINAL TOTAL ............    80.0 +j     21.4       82.8       0.9661
M1026485                 2       -80.0 +j    -21.4       82.8       0.9661
   TERMINAL TOTAL ............   -80.0 +j    -21.4       82.8       0.9661

ELEMENT = "Line.LN5591703-1"
L2804269                 2        17.8 +j      4.7       18.4       0.9665
   TERMINAL TOTAL ............    17.8 +j      4.7       18.4       0.9665
L2989564                 2       -17.8 +j     -4.7       18.4       0.9664
   TERMINAL TOTAL ............   -17.8 +j     -4.7       18.4       0.9664

ELEMENT = "Line.LN5531333-1"
M1126016                 1        36.1 +j      9.6       37.4       0.9666
   TERMINAL TOTAL ............    36.1 +j      9.6       37.4       0.9666
L3120534                 1       -36.1 +j     -9.6       37.4       0.9666
   TERMINAL TOTAL ............   -36.1 +j     -9.6       37.4       0.9666

ELEMENT = "Line.LN6047581-1"
M1026330                 2         5.9 +j      1.6        6.1       0.9662
   TERMINAL TOTAL ............     5.9 +j      1.6        6.1       0.9662
L2766726                 2        -5.9 +j     -1.6        6.1       0.9661
   TERMINAL TOTAL ............    -5.9 +j     -1.6        6.1       0.9661

ELEMENT = "Line.LN6349077-1"
P901912                  2         0.0 +j     -0.0        0.0      -0.0000
   TERMINAL TOTAL ............     0.0 +j     -0.0        0.0      -0.0000
L3195365                 2        -0.0 +j     -0.0        0.0       0.7631
   TERMINAL TOTAL ............    -0.0 +j     -0.0        0.0       0.7631

ELEMENT = "Line.LN6350574-1"
M1108381                 1        63.3 +j     16.7       65.4       0.9670
M1108381                 2        65.4 +j     17.2       67.7       0.9671
M1108381                 3        62.2 +j     16.3       64.3       0.9672
   TERMINAL TOTAL ............   190.9 +j     50.2      197.4       0.9671
L3254237                 1       -63.2 +j    -16.7       65.4       0.9670
L3254237                 2       -65.4 +j    -17.2       67.7       0.9671
L3254237                 3       -62.2 +j    -16.4       64.3       0.9671
   TERMINAL TOTAL ............  -190.9 +j    -50.3      197.4       0.9670

ELEMENT = "Line.LN6320343-1"
L2804262                 1       121.7 +j     32.4      125.9       0.9663
   TERMINAL TOTAL ............   121.7 +j     32.4      125.9       0.9663
L2841639                 1      -121.7 +j    -32.4      125.9       0.9663
   TERMINAL TOTAL ............  -121.7 +j    -32.4      125.9       0.9663

ELEMENT = "Line.LN81048100-5"
N1230123                 2       184.8 +j     48.6      191.1       0.9671
   TERMINAL TOTAL ............   184.8 +j     48.6      191.1       0.9671
L2708744                 2      -184.8 +j    -48.6      191.1       0.9671
   TERMINAL TOTAL ............  -184.8 +j    -48.6      191.1       0.9671

ELEMENT = "Line.LN6348946-1"
M1069519                 2         9.9 +j      2.6       10.2       0.9662
   TERMINAL TOTAL ............     9.9 +j      2.6       10.2       0.9662
P901927                  2        -9.9 +j     -2.6       10.2       0.9661
...